REMARK  5 active torsions:
REMARK  status: ('A' for Active; 'I' for Inactive)
REMARK    1  A    between atoms: N_1  and  C_2 
REMARK    2  A    between atoms: N_5  and  C_8 
REMARK    3  A    between atoms: C_15  and  C_28 
REMARK    4  A    between atoms: N_17  and  C_18 
REMARK    5  A    between atoms: C_28  and  O_29 
ROOT
HETATM    1  C   UNL     1       3.330   0.101   0.296  1.00  0.00     0.167 A 
HETATM    2  C   UNL     1       3.686   0.696   1.508  1.00  0.00     0.163 A 
HETATM    3  F   UNL     1       2.776   1.278   2.304  1.00  0.00    -0.202 F 
HETATM    4  C   UNL     1       5.004   0.672   1.938  1.00  0.00     0.065 A 
HETATM    5  C   UNL     1       5.958   0.039   1.144  1.00  0.00     0.065 A 
HETATM    6  C   UNL     1       7.371   0.054   1.559  1.00  0.00     0.204 A 
HETATM    7  O   UNL     1       7.733   0.603   2.596  1.00  0.00    -0.286 OA
HETATM    8  C   UNL     1       8.359  -0.607   0.690  1.00  0.00     0.104 A 
HETATM    9  C   UNL     1       7.891  -1.196  -0.421  1.00  0.00     0.121 A 
HETATM   10  N   UNL     1       6.567  -1.237  -0.867  1.00  0.00    -0.302 N 
HETATM   11  C   UNL     1       5.572  -0.586  -0.045  1.00  0.00     0.151 A 
HETATM   12  N   UNL     1       4.270  -0.546  -0.437  1.00  0.00    -0.209 NA
ENDROOT
BRANCH   1  13
HETATM   13  N   UNL     1       2.064   0.134  -0.255  1.00  0.00    -0.362 N 
HETATM   14  C   UNL     1       1.156   1.257  -0.026  1.00  0.00     0.132 C 
HETATM   15  C   UNL     1      -0.101   0.629   0.479  1.00  0.00     0.045 A 
HETATM   16  C   UNL     1      -1.050  -0.072  -0.452  1.00  0.00     0.230 A 
HETATM   17  C   UNL     1       0.001  -0.849   0.296  1.00  0.00     0.045 A 
HETATM   18  C   UNL     1       1.354  -1.152  -0.283  1.00  0.00     0.132 C 
BRANCH  16  19
HETATM   19  N   UNL     1      -2.449  -0.183  -0.037  1.00  0.00     0.083 N 
HETATM   20  H   UNL     1      -2.910   0.726  -0.068  1.00  0.00     0.313 HD
HETATM   21  H   UNL     1      -2.975  -0.785  -0.671  1.00  0.00     0.313 HD
ENDBRANCH  16  19
ENDBRANCH   1  13
BRANCH  10  22
HETATM   22  C   UNL     1       6.243  -1.854  -2.132  1.00  0.00     0.079 A 
HETATM   23  C   UNL     1       7.111  -1.805  -3.246  1.00  0.00     0.146 A 
HETATM   24  F   UNL     1       8.278  -1.145  -3.176  1.00  0.00    -0.204 F 
HETATM   25  C   UNL     1       6.789  -2.390  -4.469  1.00  0.00     0.086 A 
HETATM   26  C   UNL     1       5.566  -3.024  -4.615  1.00  0.00     0.119 A 
HETATM   27  F   UNL     1       5.237  -3.569  -5.792  1.00  0.00    -0.206 F 
HETATM   28  C   UNL     1       4.676  -3.097  -3.555  1.00  0.00     0.045 A 
HETATM   29  C   UNL     1       5.022  -2.535  -2.322  1.00  0.00     0.036 A 
ENDBRANCH  10  22
BRANCH   8  30
HETATM   30  C   UNL     1       9.808  -0.655   0.985  1.00  0.00     0.181 C 
HETATM   31  O   UNL     1      10.624  -1.209   0.262  1.00  0.00    -0.646 OA
BRANCH  30  32
HETATM   32  O   UNL     1      10.170  -0.032   2.127  1.00  0.00    -0.772 OA
HETATM   33  H   UNL     1       9.423   0.381   2.624  1.00  0.00     0.167 HD
ENDBRANCH  30  32
ENDBRANCH   8  30
TORSDOF 5
